data_SOTTUR_cleanP-1
# Symmetrized structure with precision = 1e-10
_cell_length_a                  7.133
_cell_length_b                  10.519
_cell_length_c                  11.519
_cell_angle_alpha               74.034
_cell_angle_beta                83.174
_cell_angle_gamma               72.585
_symmetry_space_group_name_H-M  'P-1'
_symmetry_Int_Tables_number     2

loop_
_atom_site_label
_atom_site_type_symbol
_atom_site_occupancy
_atom_site_fract_x
_atom_site_fract_y
_atom_site_fract_z
Sr1 Sr 1.0 0.7792200 0.4000700 0.5409600
P1 P 1.0 0.2876700 0.3220100 0.6766900
P2 P 1.0 0.8227300 0.2582600 0.3163900
H1 H 1.0 0.5459000 0.1513000 0.5325000
H2 H 1.0 0.8795000 0.5153000 0.1459000
H3 H 1.0 0.2386000 0.0347000 0.5570000
H4 H 1.0 0.2240000 0.1882000 0.4879000
H5 H 1.0 0.7222000 0.9441000 0.6514000
H6 H 1.0 0.5413000 0.8862000 0.6573000
H7 H 1.0 0.3044000 0.0882000 0.7316000
H8 H 1.0 0.5089000 0.1062000 0.7472000
H9 H 1.0 0.7846000 0.4829000 0.9325000
H10 H 1.0 0.6620000 0.6014000 0.9920000
H11 H 1.0 0.1278000 0.3145000 0.1609000
H12 H 1.0 0.0699000 0.3072000 0.0360000
H13 H 1.0 0.6078000 0.4421000 0.1854000
H14 H 1.0 0.7060000 0.3248000 0.1198000
C1 C 1.0 0.3123000 0.0957000 0.5078000
C2 C 1.0 0.6122000 0.9484000 0.6069000
C3 C 1.0 0.4010000 0.1364000 0.6931000
C4 C 1.0 0.7931000 0.5428000 0.9812000
C5 C 1.0 0.0746000 0.3694000 0.0834000
C6 C 1.0 0.7316000 0.3775000 0.1703000
N1 N 1.0 0.4780000 0.0930000 0.5783000
N2 N 1.0 0.8710000 0.4570000 0.1025000
O1 O 1.0 0.2223000 0.3239000 0.8075000
O2 O 1.0 0.1197000 0.3722000 0.5920000
O3 O 1.0 0.4425000 0.3974000 0.6243000
O4 O 1.0 0.9158000 0.1198000 0.2909000
O5 O 1.0 0.9625000 0.3200000 0.3575000
O6 O 1.0 0.6394000 0.2644000 0.4006000
