data_SOWYIMP4_12_12
# Symmetrized structure with precision = 1e-10
_cell_length_a                  11.499
_cell_length_b                  11.499
_cell_length_c                  15.795
_cell_angle_alpha               90
_cell_angle_beta                90
_cell_angle_gamma               90
_symmetry_space_group_name_H-M  'P4_12_12'
_symmetry_Int_Tables_number     92

loop_
_atom_site_label
_atom_site_type_symbol
_atom_site_occupancy
_atom_site_fract_x
_atom_site_fract_y
_atom_site_fract_z
Na1 Na 1.0 0.6083000 0.3917000 0.2500000
Si1 Si 1.0 0.4799000 0.6416000 0.3232000
H1 H 1.0 0.3791000 0.6984000 0.4543000
H2 H 1.0 0.3776000 0.5706000 0.4454000
H3 H 1.0 0.2904000 0.6422000 0.4007000
H4 H 1.0 0.5018000 0.8487000 0.3226000
H5 H 1.0 0.5263000 0.8110000 0.2350000
H6 H 1.0 0.4057000 0.8308000 0.2622000
H7 H 1.0 0.6322000 0.5516000 0.4056000
H8 H 1.0 0.6936000 0.6239000 0.3422000
H9 H 1.0 0.6432000 0.6780000 0.4185000
H10 H 1.0 0.8661000 0.4989000 0.3323000
H11 H 1.0 0.8321000 0.4433000 0.4322000
H12 H 1.0 0.7238000 0.1846000 0.3308000
H13 H 1.0 0.7498000 0.2419000 0.4317000
H14 H 1.0 0.8917000 0.1009000 0.3993000
H15 H 1.0 0.9295000 0.1704000 0.3047000
H16 H 1.0 0.0184000 0.3580000 0.3094000
H17 H 1.0 0.0440000 0.4213000 0.4082000
C1 C 1.0 0.3714000 0.6394000 0.4122000
C2 C 1.0 0.4757000 0.7947000 0.2813000
C3 C 1.0 0.6252000 0.6229000 0.3753000
C4 C 1.0 0.8656000 0.4215000 0.3707000
C5 C 1.0 0.7820000 0.2366000 0.3681000
C6 C 1.0 0.9007000 0.1827000 0.3687000
C7 C 1.0 0.9855000 0.3671000 0.3728000
N1 N 1.0 0.4620000 0.5380000 0.2500000
O1 O 1.0 0.7838000 0.3488000 0.3282000
O2 O 1.0 0.9821000 0.2557000 0.4130000
