data_XUJSAY_cleanPbam
# Symmetrized structure with precision = 1e-10
_cell_length_a                  15.283
_cell_length_b                  24.9021
_cell_length_c                  10.6168
_cell_angle_alpha               90
_cell_angle_beta                90
_cell_angle_gamma               90
_symmetry_space_group_name_H-M  'Pbam'
_symmetry_Int_Tables_number     55

loop_
_atom_site_label
_atom_site_type_symbol
_atom_site_occupancy
_atom_site_fract_x
_atom_site_fract_y
_atom_site_fract_z
O1 O 1.0 0.6445300 0.7268400 0.6034700
O2 O 1.0 0.3042600 0.8416000 0.3962000
O3 O 1.0 0.6361200 0.6195900 0.2866800
O4 O 1.0 0.4137900 0.6268100 0.2906000
O5 O 1.0 0.2759800 0.5048800 0.2888000
N1 N 1.0 0.7287300 0.6240300 0.1151000
N2 N 1.0 0.6093300 0.6746200 0.1155000
N3 N 1.0 0.4510100 0.6774700 0.1152000
N4 N 1.0 0.3258400 0.6324100 0.1145000
N5 N 1.0 0.2332000 0.5536000 0.1151000
N6 N 1.0 0.2093000 0.4658700 0.1156000
H1 H 1.0 0.4707000 0.7780000 0.5757000
C1 C 1.0 0.4724000 0.8854700 0.6185000
H2 H 1.0 0.4430000 0.9209000 0.6204000
H3 H 1.0 0.4549000 0.8653000 0.6948000
C2 C 1.0 0.5720300 0.8933800 0.6180000
H4 H 1.0 0.5900000 0.9136000 0.6951000
C3 C 1.0 0.6163000 0.8378400 0.6175000
H5 H 1.0 0.6807000 0.8423000 0.6188000
H6 H 1.0 0.5990000 0.8177000 0.6939000
C4 C 1.0 0.6565300 0.6378800 0.1816000
C5 C 1.0 0.5312000 0.7006200 0.1634000
H7 H 1.0 0.5310000 0.6981000 0.2564000
H8 H 1.0 0.5330000 0.7392000 0.1406000
C6 C 1.0 0.3983800 0.6439200 0.1844000
C7 C 1.0 0.2500900 0.6063000 0.1674000
H9 H 1.0 0.1982000 0.6293000 0.1530000
H10 H 1.0 0.2583000 0.6029000 0.2595000
C8 C 1.0 0.2436000 0.5075500 0.1837000
C9 C 1.0 0.2034800 0.4112800 0.1625000
H11 H 1.0 0.2068000 0.4120000 0.2556000
H12 H 1.0 0.1457000 0.3963000 0.1391000
Tb1 Tb 1.0 0.6635800 0.6397100 0.5000000
C10 C 1.0 0.5895000 0.8062600 0.5000000
C11 C 1.0 0.4886000 0.7985400 0.5000000
C12 C 1.0 0.4439000 0.8543500 0.5000000
C13 C 1.0 0.6003000 0.9245100 0.5000000
H13 H 1.0 0.5730000 0.9606000 0.5000000
H14 H 1.0 0.6647000 0.9292000 0.5000000
C14 C 1.0 0.6298000 0.7504100 0.5000000
C15 C 1.0 0.3453000 0.8452600 0.5000000
C16 C 1.0 0.7368000 0.6551200 0.0000000
H15 H 1.0 0.7912000 0.6775000 0.0000000
C17 C 1.0 0.6535000 0.6903700 0.0000000
H16 H 1.0 0.6683000 0.7295000 0.0000000
C18 C 1.0 0.4090000 0.6951700 0.0000000
H17 H 1.0 0.3991000 0.7349000 0.0000000
C19 C 1.0 0.3217000 0.6638000 0.0000000
H18 H 1.0 0.2702000 0.6886000 0.0000000
C20 C 1.0 0.1842000 0.5452300 0.0000000
H19 H 1.0 0.1282000 0.5660000 0.0000000
C21 C 1.0 0.1671000 0.4836200 0.0000000
H20 H 1.0 0.1031000 0.4752000 0.0000000
