data_ZIDDIB_cleanPccn
# Symmetrized structure with precision = 1e-10
_cell_length_a                  16.063
_cell_length_b                  16.485
_cell_length_c                  19.025
_cell_angle_alpha               90
_cell_angle_beta                90
_cell_angle_gamma               90
_symmetry_space_group_name_H-M  'Pccn'
_symmetry_Int_Tables_number     56

loop_
_atom_site_label
_atom_site_type_symbol
_atom_site_occupancy
_atom_site_fract_x
_atom_site_fract_y
_atom_site_fract_z
In1 In 1.0 0.5441300 0.2574600 0.0126000
In2 In 1.0 0.2796100 0.9305200 0.8157600
H1 H 1.0 0.2026000 0.9561000 0.0663000
H2 H 1.0 0.2860000 0.0673000 0.1001000
H3 H 1.0 0.3923000 0.0547000 0.9114000
H4 H 1.0 0.0252000 0.0438000 0.6956000
H5 H 1.0 0.9722000 0.1250000 0.7842000
H6 H 1.0 0.1654000 0.0682000 0.9057000
H7 H 1.0 0.4293000 0.1018000 0.6003000
H8 H 1.0 0.5605000 0.2340000 0.7825000
H9 H 1.0 0.4615000 0.1358000 0.8077000
C1 C 1.0 0.1924000 0.8780000 0.9467000
C2 C 1.0 0.2488000 0.9466000 0.9736000
C3 C 1.0 0.2415000 0.9774000 0.0351000
C4 C 1.0 0.2921000 0.0438000 0.0560000
C5 C 1.0 0.3498000 0.0723000 0.0097000
C6 C 1.0 0.3532000 0.0360000 0.9436000
C7 C 1.0 0.4075000 0.1414000 0.0288000
C8 C 1.0 0.1523000 0.9381000 0.7023000
C9 C 1.0 0.1220000 0.0042000 0.7536000
C10 C 1.0 0.0514000 0.0473000 0.7391000
C11 C 1.0 0.0209000 0.0957000 0.7915000
C12 C 1.0 0.0616000 0.1016000 0.8551000
C13 C 1.0 0.1359000 0.0614000 0.8640000
C14 C 1.0 0.0272000 0.1513000 0.9152000
C15 C 1.0 0.3713000 0.0443000 0.7210000
C16 C 1.0 0.4340000 0.1104000 0.7090000
C17 C 1.0 0.4539000 0.1306000 0.6368000
C18 C 1.0 0.5453000 0.2288000 0.6761000
C19 C 1.0 0.5314000 0.2083000 0.7466000
C20 C 1.0 0.4734000 0.1490000 0.7612000
C21 C 1.0 0.6027000 0.2959000 0.6551000
N1 N 1.0 0.3025000 0.9754000 0.9243000
N2 N 1.0 0.1674000 0.0118000 0.8131000
N3 N 1.0 0.5071000 0.1901000 0.6225000
O1 O 1.0 0.2000000 0.8545000 0.8834000
O2 O 1.0 0.1435000 0.8485000 0.9903000
O3 O 1.0 0.3942000 0.1809000 0.0809000
O4 O 1.0 0.4653000 0.1581000 0.9867000
O5 O 1.0 0.2115000 0.8932000 0.7255000
O6 O 1.0 0.1141000 0.9290000 0.6476000
O7 O 1.0 0.9710000 0.2033000 0.8991000
O8 O 1.0 0.0520000 0.1453000 0.9760000
O9 O 1.0 0.3662000 0.0206000 0.7851000
O10 O 1.0 0.3322000 0.0152000 0.6752000
O11 O 1.0 0.6398000 0.3320000 0.7047000
O12 O 1.0 0.6071000 0.3160000 0.5931000
